Circuit: * C:\Users\fsacco\Desktop\Francesco\LTSpice_Studies\Basics of Power Electronics - 5 - LTSpice for Linear and Switched operation\Draft1.asc

Direct Newton iteration for .op point succeeded.

Date: Fri Nov 17 14:57:07 2023
Total elapsed time: 0.819 seconds.

tnom = 27
temp = 27
method = modified trap
totiter = 200037
traniter = 200034
tranpoints = 100018
accept = 100018
rejected = 0
matrix size = 2
fillins = 0
solver = Normal
Avg thread counts: 1.0/1.0/1.0/1.0
Matrix Compiler1: off  [0.1]/0.1/0.2
Matrix Compiler2: off  [0.1]/0.1/0.1

